*SPEF "IEEE 1481-1998"
*DESIGN "ibex_system"
*DATE "Tue May  7 01:52:58 2024"
*VENDOR "Cadence Design Systems, Inc."
*PROGRAM "Innovus"
*VERSION "21.16-s078_1"
*DESIGN_FLOW "PIN_CAP NONE" "NAME_SCOPE LOCAL"
*DIVIDER /
*DELIMITER :
*BUS_DELIMITER []
*T_UNIT 1 NS
*C_UNIT 1 PF
*R_UNIT 1 OHM
*L_UNIT 1 HENRY

*NAME_MAP

*1 clk_i
*2 rst_ni
*3 test_en_i
*4 ram_cfg_i[9]
*5 ram_cfg_i[8]
*6 ram_cfg_i[7]
*7 ram_cfg_i[6]
*8 ram_cfg_i[5]
*9 ram_cfg_i[4]
*10 ram_cfg_i[3]
*11 ram_cfg_i[2]
*12 ram_cfg_i[1]
*13 ram_cfg_i[0]
*14 hart_id_i[31]
*15 hart_id_i[30]
*16 hart_id_i[29]
*17 hart_id_i[28]
*18 hart_id_i[27]
*19 hart_id_i[26]
*20 hart_id_i[25]
*21 hart_id_i[24]
*22 hart_id_i[23]
*23 hart_id_i[22]
*24 hart_id_i[21]
*25 hart_id_i[20]
*26 hart_id_i[19]
*27 hart_id_i[18]
*28 hart_id_i[17]
*29 hart_id_i[16]
*30 hart_id_i[15]
*31 hart_id_i[14]
*32 hart_id_i[13]
*33 hart_id_i[12]
*34 hart_id_i[11]
*35 hart_id_i[10]
*36 hart_id_i[9]
*37 hart_id_i[8]
*38 hart_id_i[7]
*39 hart_id_i[6]
*40 hart_id_i[5]
*41 hart_id_i[4]
*42 hart_id_i[3]
*43 hart_id_i[2]
*44 hart_id_i[1]
*45 hart_id_i[0]
*46 boot_addr_i[31]
*47 boot_addr_i[30]
*48 boot_addr_i[29]
*49 boot_addr_i[28]
*50 boot_addr_i[27]
*51 boot_addr_i[26]
*52 boot_addr_i[25]
*53 boot_addr_i[24]
*54 boot_addr_i[23]
*55 boot_addr_i[22]
*56 boot_addr_i[21]
*57 boot_addr_i[20]
*58 boot_addr_i[19]
*59 boot_addr_i[18]
*60 boot_addr_i[17]
*61 boot_addr_i[16]
*62 boot_addr_i[15]
*63 boot_addr_i[14]
*64 boot_addr_i[13]
*65 boot_addr_i[12]
*66 boot_addr_i[11]
*67 boot_addr_i[10]
*68 boot_addr_i[9]
*69 boot_addr_i[8]
*70 boot_addr_i[7]
*71 boot_addr_i[6]
*72 boot_addr_i[5]
*73 boot_addr_i[4]
*74 boot_addr_i[3]
*75 boot_addr_i[2]
*76 boot_addr_i[1]
*77 boot_addr_i[0]
*78 instr_req_o
*79 instr_gnt_i
*80 instr_rvalid_i
*81 instr_addr_o[31]
*82 instr_addr_o[30]
*83 instr_addr_o[29]
*84 instr_addr_o[28]
*85 instr_addr_o[27]
*86 instr_addr_o[26]
*87 instr_addr_o[25]
*88 instr_addr_o[24]
*89 instr_addr_o[23]
*90 instr_addr_o[22]
*91 instr_addr_o[21]
*92 instr_addr_o[20]
*93 instr_addr_o[19]
*94 instr_addr_o[18]
*95 instr_addr_o[17]
*96 instr_addr_o[16]
*97 instr_addr_o[15]
*98 instr_addr_o[14]
*99 instr_addr_o[13]
*100 instr_addr_o[12]
*101 instr_addr_o[11]
*102 instr_addr_o[10]
*103 instr_addr_o[9]
*104 instr_addr_o[8]
*105 instr_addr_o[7]
*106 instr_addr_o[6]
*107 instr_addr_o[5]
*108 instr_addr_o[4]
*109 instr_addr_o[3]
*110 instr_addr_o[2]
*111 instr_addr_o[1]
*112 instr_addr_o[0]
*113 instr_rdata_i[31]
*114 instr_rdata_i[30]
*115 instr_rdata_i[29]
*116 instr_rdata_i[28]
*117 instr_rdata_i[27]
*118 instr_rdata_i[26]
*119 instr_rdata_i[25]
*120 instr_rdata_i[24]
*121 instr_rdata_i[23]
*122 instr_rdata_i[22]
*123 instr_rdata_i[21]
*124 instr_rdata_i[20]
*125 instr_rdata_i[19]
*126 instr_rdata_i[18]
*127 instr_rdata_i[17]
*128 instr_rdata_i[16]
*129 instr_rdata_i[15]
*130 instr_rdata_i[14]
*131 instr_rdata_i[13]
*132 instr_rdata_i[12]
*133 instr_rdata_i[11]
*134 instr_rdata_i[10]
*135 instr_rdata_i[9]
*136 instr_rdata_i[8]
*137 instr_rdata_i[7]
*138 instr_rdata_i[6]
*139 instr_rdata_i[5]
*140 instr_rdata_i[4]
*141 instr_rdata_i[3]
*142 instr_rdata_i[2]
*143 instr_rdata_i[1]
*144 instr_rdata_i[0]
*145 instr_rdata_intg_i[6]
*146 instr_rdata_intg_i[5]
*147 instr_rdata_intg_i[4]
*148 instr_rdata_intg_i[3]
*149 instr_rdata_intg_i[2]
*150 instr_rdata_intg_i[1]
*151 instr_rdata_intg_i[0]
*152 instr_err_i
*153 data_req_o
*154 data_gnt_i
*155 data_rvalid_i
*156 data_we_o
*157 data_be_o[3]
*158 data_be_o[2]
*159 data_be_o[1]
*160 data_be_o[0]
*161 data_addr_o[31]
*162 data_addr_o[30]
*163 data_addr_o[29]
*164 data_addr_o[28]
*165 data_addr_o[27]
*166 data_addr_o[26]
*167 data_addr_o[25]
*168 data_addr_o[24]
*169 data_addr_o[23]
*170 data_addr_o[22]
*171 data_addr_o[21]
*172 data_addr_o[20]
*173 data_addr_o[19]
*174 data_addr_o[18]
*175 data_addr_o[17]
*176 data_addr_o[16]
*177 data_addr_o[15]
*178 data_addr_o[14]
*179 data_addr_o[13]
*180 data_addr_o[12]
*181 data_addr_o[11]
*182 data_addr_o[10]
*183 data_addr_o[9]
*184 data_addr_o[8]
*185 data_addr_o[7]
*186 data_addr_o[6]
*187 data_addr_o[5]
*188 data_addr_o[4]
*189 data_addr_o[3]
*190 data_addr_o[2]
*191 data_addr_o[1]
*192 data_addr_o[0]
*193 data_wdata_o[31]
*194 data_wdata_o[30]
*195 data_wdata_o[29]
*196 data_wdata_o[28]
*197 data_wdata_o[27]
*198 data_wdata_o[26]
*199 data_wdata_o[25]
*200 data_wdata_o[24]
*201 data_wdata_o[23]
*202 data_wdata_o[22]
*203 data_wdata_o[21]
*204 data_wdata_o[20]
*205 data_wdata_o[19]
*206 data_wdata_o[18]
*207 data_wdata_o[17]
*208 data_wdata_o[16]
*209 data_wdata_o[15]
*210 data_wdata_o[14]
*211 data_wdata_o[13]
*212 data_wdata_o[12]
*213 data_wdata_o[11]
*214 data_wdata_o[10]
*215 data_wdata_o[9]
*216 data_wdata_o[8]
*217 data_wdata_o[7]
*218 data_wdata_o[6]
*219 data_wdata_o[5]
*220 data_wdata_o[4]
*221 data_wdata_o[3]
*222 data_wdata_o[2]
*223 data_wdata_o[1]
*224 data_wdata_o[0]
*225 data_wdata_intg_o[6]
*226 data_wdata_intg_o[5]
*227 data_wdata_intg_o[4]
*228 data_wdata_intg_o[3]
*229 data_wdata_intg_o[2]
*230 data_wdata_intg_o[1]
*231 data_wdata_intg_o[0]
*232 data_rdata_i[31]
*233 data_rdata_i[30]
*234 data_rdata_i[29]
*235 data_rdata_i[28]
*236 data_rdata_i[27]
*237 data_rdata_i[26]
*238 data_rdata_i[25]
*239 data_rdata_i[24]
*240 data_rdata_i[23]
*241 data_rdata_i[22]
*242 data_rdata_i[21]
*243 data_rdata_i[20]
*244 data_rdata_i[19]
*245 data_rdata_i[18]
*246 data_rdata_i[17]
*247 data_rdata_i[16]
*248 data_rdata_i[15]
*249 data_rdata_i[14]
*250 data_rdata_i[13]
*251 data_rdata_i[12]
*252 data_rdata_i[11]
*253 data_rdata_i[10]
*254 data_rdata_i[9]
*255 data_rdata_i[8]
*256 data_rdata_i[7]
*257 data_rdata_i[6]
*258 data_rdata_i[5]
*259 data_rdata_i[4]
*260 data_rdata_i[3]
*261 data_rdata_i[2]
*262 data_rdata_i[1]
*263 data_rdata_i[0]
*264 data_rdata_intg_i[6]
*265 data_rdata_intg_i[5]
*266 data_rdata_intg_i[4]
*267 data_rdata_intg_i[3]
*268 data_rdata_intg_i[2]
*269 data_rdata_intg_i[1]
*270 data_rdata_intg_i[0]
*271 data_err_i
*272 irq_software_i
*273 irq_timer_i
*274 irq_external_i
*275 irq_fast_i[14]
*276 irq_fast_i[13]
*277 irq_fast_i[12]
*278 irq_fast_i[11]
*279 irq_fast_i[10]
*280 irq_fast_i[9]
*281 irq_fast_i[8]
*282 irq_fast_i[7]
*283 irq_fast_i[6]
*284 irq_fast_i[5]
*285 irq_fast_i[4]
*286 irq_fast_i[3]
*287 irq_fast_i[2]
*288 irq_fast_i[1]
*289 irq_fast_i[0]
*290 irq_nm_i
*291 scramble_key_valid_i
*292 scramble_key_i[127]
*293 scramble_key_i[126]
*294 scramble_key_i[125]
*295 scramble_key_i[124]
*296 scramble_key_i[123]
*297 scramble_key_i[122]
*298 scramble_key_i[121]
*299 scramble_key_i[120]
*300 scramble_key_i[119]
*301 scramble_key_i[118]
*302 scramble_key_i[117]
*303 scramble_key_i[116]
*304 scramble_key_i[115]
*305 scramble_key_i[114]
*306 scramble_key_i[113]
*307 scramble_key_i[112]
*308 scramble_key_i[111]
*309 scramble_key_i[110]
*310 scramble_key_i[109]
*311 scramble_key_i[108]
*312 scramble_key_i[107]
*313 scramble_key_i[106]
*314 scramble_key_i[105]
*315 scramble_key_i[104]
*316 scramble_key_i[103]
*317 scramble_key_i[102]
*318 scramble_key_i[101]
*319 scramble_key_i[100]
*320 scramble_key_i[99]
*321 scramble_key_i[98]
*322 scramble_key_i[97]
*323 scramble_key_i[96]
*324 scramble_key_i[95]
*325 scramble_key_i[94]
*326 scramble_key_i[93]
*327 scramble_key_i[92]
*328 scramble_key_i[91]
*329 scramble_key_i[90]
*330 scramble_key_i[89]
*331 scramble_key_i[88]
*332 scramble_key_i[87]
*333 scramble_key_i[86]
*334 scramble_key_i[85]
*335 scramble_key_i[84]
*336 scramble_key_i[83]
*337 scramble_key_i[82]
*338 scramble_key_i[81]
*339 scramble_key_i[80]
*340 scramble_key_i[79]
*341 scramble_key_i[78]
*342 scramble_key_i[77]
*343 scramble_key_i[76]
*344 scramble_key_i[75]
*345 scramble_key_i[74]
*346 scramble_key_i[73]
*347 scramble_key_i[72]
*348 scramble_key_i[71]
*349 scramble_key_i[70]
*350 scramble_key_i[69]
*351 scramble_key_i[68]
*352 scramble_key_i[67]
*353 scramble_key_i[66]
*354 scramble_key_i[65]
*355 scramble_key_i[64]
*356 scramble_key_i[63]
*357 scramble_key_i[62]
*358 scramble_key_i[61]
*359 scramble_key_i[60]
*360 scramble_key_i[59]
*361 scramble_key_i[58]
*362 scramble_key_i[57]
*363 scramble_key_i[56]
*364 scramble_key_i[55]
*365 scramble_key_i[54]
*366 scramble_key_i[53]
*367 scramble_key_i[52]
*368 scramble_key_i[51]
*369 scramble_key_i[50]
*370 scramble_key_i[49]
*371 scramble_key_i[48]
*372 scramble_key_i[47]
*373 scramble_key_i[46]
*374 scramble_key_i[45]
*375 scramble_key_i[44]
*376 scramble_key_i[43]
*377 scramble_key_i[42]
*378 scramble_key_i[41]
*379 scramble_key_i[40]
*380 scramble_key_i[39]
*381 scramble_key_i[38]
*382 scramble_key_i[37]
*383 scramble_key_i[36]
*384 scramble_key_i[35]
*385 scramble_key_i[34]
*386 scramble_key_i[33]
*387 scramble_key_i[32]
*388 scramble_key_i[31]
*389 scramble_key_i[30]
*390 scramble_key_i[29]
*391 scramble_key_i[28]
*392 scramble_key_i[27]
*393 scramble_key_i[26]
*394 scramble_key_i[25]
*395 scramble_key_i[24]
*396 scramble_key_i[23]
*397 scramble_key_i[22]
*398 scramble_key_i[21]
*399 scramble_key_i[20]
*400 scramble_key_i[19]
*401 scramble_key_i[18]
*402 scramble_key_i[17]
*403 scramble_key_i[16]
*404 scramble_key_i[15]
*405 scramble_key_i[14]
*406 scramble_key_i[13]
*407 scramble_key_i[12]
*408 scramble_key_i[11]
*409 scramble_key_i[10]
*410 scramble_key_i[9]
*411 scramble_key_i[8]
*412 scramble_key_i[7]
*413 scramble_key_i[6]
*414 scramble_key_i[5]
*415 scramble_key_i[4]
*416 scramble_key_i[3]
*417 scramble_key_i[2]
*418 scramble_key_i[1]
*419 scramble_key_i[0]
*420 scramble_nonce_i[63]
*421 scramble_nonce_i[62]
*422 scramble_nonce_i[61]
*423 scramble_nonce_i[60]
*424 scramble_nonce_i[59]
*425 scramble_nonce_i[58]
*426 scramble_nonce_i[57]
*427 scramble_nonce_i[56]
*428 scramble_nonce_i[55]
*429 scramble_nonce_i[54]
*430 scramble_nonce_i[53]
*431 scramble_nonce_i[52]
*432 scramble_nonce_i[51]
*433 scramble_nonce_i[50]
*434 scramble_nonce_i[49]
*435 scramble_nonce_i[48]
*436 scramble_nonce_i[47]
*437 scramble_nonce_i[46]
*438 scramble_nonce_i[45]
*439 scramble_nonce_i[44]
*440 scramble_nonce_i[43]
*441 scramble_nonce_i[42]
*442 scramble_nonce_i[41]
*443 scramble_nonce_i[40]
*444 scramble_nonce_i[39]
*445 scramble_nonce_i[38]
*446 scramble_nonce_i[37]
*447 scramble_nonce_i[36]
*448 scramble_nonce_i[35]
*449 scramble_nonce_i[34]
*450 scramble_nonce_i[33]
*451 scramble_nonce_i[32]
*452 scramble_nonce_i[31]
*453 scramble_nonce_i[30]
*454 scramble_nonce_i[29]
*455 scramble_nonce_i[28]
*456 scramble_nonce_i[27]
*457 scramble_nonce_i[26]
*458 scramble_nonce_i[25]
*459 scramble_nonce_i[24]
*460 scramble_nonce_i[23]
*461 scramble_nonce_i[22]
*462 scramble_nonce_i[21]
*463 scramble_nonce_i[20]
*464 scramble_nonce_i[19]
*465 scramble_nonce_i[18]
*466 scramble_nonce_i[17]
*467 scramble_nonce_i[16]
*468 scramble_nonce_i[15]
*469 scramble_nonce_i[14]
*470 scramble_nonce_i[13]
*471 scramble_nonce_i[12]
*472 scramble_nonce_i[11]
*473 scramble_nonce_i[10]
*474 scramble_nonce_i[9]
*475 scramble_nonce_i[8]
*476 scramble_nonce_i[7]
*477 scramble_nonce_i[6]
*478 scramble_nonce_i[5]
*479 scramble_nonce_i[4]
*480 scramble_nonce_i[3]
*481 scramble_nonce_i[2]
*482 scramble_nonce_i[1]
*483 scramble_nonce_i[0]
*484 scramble_req_o
*485 debug_req_i
*486 crash_dump_o[159]
*487 crash_dump_o[158]
*488 crash_dump_o[157]
*489 crash_dump_o[156]
*490 crash_dump_o[155]
*491 crash_dump_o[154]
*492 crash_dump_o[153]
*493 crash_dump_o[152]
*494 crash_dump_o[151]
*495 crash_dump_o[150]
*496 crash_dump_o[149]
*497 crash_dump_o[148]
*498 crash_dump_o[147]
*499 crash_dump_o[146]
*500 crash_dump_o[145]
*501 crash_dump_o[144]
*502 crash_dump_o[143]
*503 crash_dump_o[142]
*504 crash_dump_o[141]
*505 crash_dump_o[140]
*506 crash_dump_o[139]
*507 crash_dump_o[138]
*508 crash_dump_o[137]
*509 crash_dump_o[136]
*510 crash_dump_o[135]
*511 crash_dump_o[134]
*512 crash_dump_o[133]
*513 crash_dump_o[132]
*514 crash_dump_o[131]
*515 crash_dump_o[130]
*516 crash_dump_o[129]
*517 crash_dump_o[128]
*518 crash_dump_o[127]
*519 crash_dump_o[126]
*520 crash_dump_o[125]
*521 crash_dump_o[124]
*522 crash_dump_o[123]
*523 crash_dump_o[122]
*524 crash_dump_o[121]
*525 crash_dump_o[120]
*526 crash_dump_o[119]
*527 crash_dump_o[118]
*528 crash_dump_o[117]
*529 crash_dump_o[116]
*530 crash_dump_o[115]
*531 crash_dump_o[114]
*532 crash_dump_o[113]
*533 crash_dump_o[112]
*534 crash_dump_o[111]
*535 crash_dump_o[110]
*536 crash_dump_o[109]
*537 crash_dump_o[108]
*538 crash_dump_o[107]
*539 crash_dump_o[106]
*540 crash_dump_o[105]
*541 crash_dump_o[104]
*542 crash_dump_o[103]
*543 crash_dump_o[102]
*544 crash_dump_o[101]
*545 crash_dump_o[100]
*546 crash_dump_o[99]
*547 crash_dump_o[98]
*548 crash_dump_o[97]
*549 crash_dump_o[96]
*550 crash_dump_o[95]
*551 crash_dump_o[94]
*552 crash_dump_o[93]
*553 crash_dump_o[92]
*554 crash_dump_o[91]
*555 crash_dump_o[90]
*556 crash_dump_o[89]
*557 crash_dump_o[88]
*558 crash_dump_o[87]
*559 crash_dump_o[86]
*560 crash_dump_o[85]
*561 crash_dump_o[84]
*562 crash_dump_o[83]
*563 crash_dump_o[82]
*564 crash_dump_o[81]
*565 crash_dump_o[80]
*566 crash_dump_o[79]
*567 crash_dump_o[78]
*568 crash_dump_o[77]
*569 crash_dump_o[76]
*570 crash_dump_o[75]
*571 crash_dump_o[74]
*572 crash_dump_o[73]
*573 crash_dump_o[72]
*574 crash_dump_o[71]
*575 crash_dump_o[70]
*576 crash_dump_o[69]
*577 crash_dump_o[68]
*578 crash_dump_o[67]
*579 crash_dump_o[66]
*580 crash_dump_o[65]
*581 crash_dump_o[64]
*582 crash_dump_o[63]
*583 crash_dump_o[62]
*584 crash_dump_o[61]
*585 crash_dump_o[60]
*586 crash_dump_o[59]
*587 crash_dump_o[58]
*588 crash_dump_o[57]
*589 crash_dump_o[56]
*590 crash_dump_o[55]
*591 crash_dump_o[54]
*592 crash_dump_o[53]
*593 crash_dump_o[52]
*594 crash_dump_o[51]
*595 crash_dump_o[50]
*596 crash_dump_o[49]
*597 crash_dump_o[48]
*598 crash_dump_o[47]
*599 crash_dump_o[46]
*600 crash_dump_o[45]
*601 crash_dump_o[44]
*602 crash_dump_o[43]
*603 crash_dump_o[42]
*604 crash_dump_o[41]
*605 crash_dump_o[40]
*606 crash_dump_o[39]
*607 crash_dump_o[38]
*608 crash_dump_o[37]
*609 crash_dump_o[36]
*610 crash_dump_o[35]
*611 crash_dump_o[34]
*612 crash_dump_o[33]
*613 crash_dump_o[32]
*614 crash_dump_o[31]
*615 crash_dump_o[30]
*616 crash_dump_o[29]
*617 crash_dump_o[28]
*618 crash_dump_o[27]
*619 crash_dump_o[26]
*620 crash_dump_o[25]
*621 crash_dump_o[24]
*622 crash_dump_o[23]
*623 crash_dump_o[22]
*624 crash_dump_o[21]
*625 crash_dump_o[20]
*626 crash_dump_o[19]
*627 crash_dump_o[18]
*628 crash_dump_o[17]
*629 crash_dump_o[16]
*630 crash_dump_o[15]
*631 crash_dump_o[14]
*632 crash_dump_o[13]
*633 crash_dump_o[12]
*634 crash_dump_o[11]
*635 crash_dump_o[10]
*636 crash_dump_o[9]
*637 crash_dump_o[8]
*638 crash_dump_o[7]
*639 crash_dump_o[6]
*640 crash_dump_o[5]
*641 crash_dump_o[4]
*642 crash_dump_o[3]
*643 crash_dump_o[2]
*644 crash_dump_o[1]
*645 crash_dump_o[0]
*646 double_fault_seen_o
*647 fetch_enable_i[3]
*648 fetch_enable_i[2]
*649 fetch_enable_i[1]
*650 fetch_enable_i[0]
*651 alert_minor_o
*652 alert_major_internal_o
*653 alert_major_bus_o
*654 core_sleep_o
*655 scan_rst_ni
*656 i_data
*657 d_data
*658 u_ibex_top
*659 u_sram
*660 u_IMEM/imem0
*661 u_DMEM/dmem0


*PORTS

*1 I *C 0 505.2
*2 I *C 0 508.8
*3 I *C 0 44.4
*4 I *C 660 0
*5 I *C 656.4 0
*6 I *C 652.8 0
*7 I *C 649.2 0
*8 I *C 645.6 0
*9 I *C 642 0
*10 I *C 638.4 0
*11 I *C 634.8 0
*12 I *C 631.2 0
*13 I *C 627.6 0
*14 I *C 900 122.4
*15 I *C 900 119.4
*16 I *C 900 116.4
*17 I *C 900 113.4
*18 I *C 900 110.4
*19 I *C 900 107.4
*20 I *C 900 104.4
*21 I *C 900 101.4
*22 I *C 900 98.4
*23 I *C 900 95.4
*24 I *C 900 92.4
*25 I *C 900 89.4
*26 I *C 900 86.4
*27 I *C 900 83.4
*28 I *C 900 80.4
*29 I *C 900 77.4
*30 I *C 900 74.4
*31 I *C 900 71.4
*32 I *C 900 68.4
*33 I *C 900 65.4
*34 I *C 900 62.4
*35 I *C 900 59.4
*36 I *C 900 56.4
*37 I *C 900 53.4
*38 I *C 900 50.4
*39 I *C 900 47.4
*40 I *C 900 44.4
*41 I *C 900 41.4
*42 I *C 900 38.4
*43 I *C 900 35.4
*44 I *C 900 32.4
*45 I *C 900 29.4
*46 I *C 0 159.6
*47 I *C 0 156
*48 I *C 0 152.4
*49 I *C 0 148.8
*50 I *C 0 145.2
*51 I *C 0 141.6
*52 I *C 0 138
*53 I *C 0 134.4
*54 I *C 0 130.8
*55 I *C 0 127.2
*56 I *C 0 123.6
*57 I *C 0 120
*58 I *C 0 116.4
*59 I *C 0 112.8
*60 I *C 0 109.2
*61 I *C 0 105.6
*62 I *C 0 102
*63 I *C 0 98.4
*64 I *C 0 94.8
*65 I *C 0 91.2
*66 I *C 0 87.6
*67 I *C 0 84
*68 I *C 0 80.4
*69 I *C 0 76.8
*70 I *C 688.8 0
*71 I *C 685.2 0
*72 I *C 681.6 0
*73 I *C 678 0
*74 I *C 674.4 0
*75 I *C 670.8 0
*76 I *C 667.2 0
*77 I *C 663.6 0
*78 O *C 0 663.6
*79 I *C 0 512.4
*80 I *C 0 516
*81 O *C 0 667.2
*82 O *C 0 670.8
*83 O *C 0 674.4
*84 O *C 0 678
*85 O *C 0 681.6
*86 O *C 0 685.2
*87 O *C 0 688.8
*88 O *C 0 692.4
*89 O *C 0 696
*90 O *C 0 699.6
*91 O *C 0 703.2
*92 O *C 0 706.8
*93 O *C 0 710.4
*94 O *C 0 714
*95 O *C 0 717.6
*96 O *C 0 721.2
*97 O *C 0 724.8
*98 O *C 0 728.4
*99 O *C 0 732
*100 O *C 0 735.6
*101 O *C 0 739.2
*102 O *C 0 742.8
*103 O *C 0 746.4
*104 O *C 0 750
*105 O *C 0 753.6
*106 O *C 0 757.2
*107 O *C 0 760.8
*108 O *C 0 764.4
*109 O *C 0 768
*110 O *C 0 771.6
*111 O *C 0 775.2
*112 O *C 0 778.8
*113 I *C 0 519.6
*114 I *C 0 523.2
*115 I *C 0 526.8
*116 I *C 0 530.4
*117 I *C 0 534
*118 I *C 0 537.6
*119 I *C 0 541.2
*120 I *C 0 544.8
*121 I *C 0 548.4
*122 I *C 0 552
*123 I *C 0 555.6
*124 I *C 0 559.2
*125 I *C 0 562.8
*126 I *C 0 566.4
*127 I *C 0 570
*128 I *C 0 573.6
*129 I *C 0 577.2
*130 I *C 0 580.8
*131 I *C 0 584.4
*132 I *C 0 588
*133 I *C 0 591.6
*134 I *C 0 595.2
*135 I *C 0 598.8
*136 I *C 0 602.4
*137 I *C 0 606
*138 I *C 0 609.6
*139 I *C 0 613.2
*140 I *C 0 616.8
*141 I *C 0 620.4
*142 I *C 0 624
*143 I *C 0 627.6
*144 I *C 0 631.2
*145 I *C 0 634.8
*146 I *C 0 638.4
*147 I *C 0 642
*148 I *C 0 645.6
*149 I *C 0 649.2
*150 I *C 0 652.8
*151 I *C 0 656.4
*152 I *C 0 660
*153 O *C 900 509.4
*154 I *C 900 503.4
*155 I *C 900 506.4
*156 O *C 900 512.4
*157 O *C 900 515.4
*158 O *C 900 518.4
*159 O *C 900 521.4
*160 O *C 900 524.4
*161 O *C 900 527.4
*162 O *C 900 530.4
*163 O *C 900 533.4
*164 O *C 900 536.4
*165 O *C 900 539.4
*166 O *C 900 542.4
*167 O *C 900 545.4
*168 O *C 900 548.4
*169 O *C 900 551.4
*170 O *C 900 554.4
*171 O *C 900 557.4
*172 O *C 900 560.4
*173 O *C 900 563.4
*174 O *C 900 566.4
*175 O *C 900 569.4
*176 O *C 900 572.4
*177 O *C 900 575.4
*178 O *C 900 578.4
*179 O *C 900 581.4
*180 O *C 900 584.4
*181 O *C 900 587.4
*182 O *C 900 590.4
*183 O *C 900 593.4
*184 O *C 900 596.4
*185 O *C 900 599.4
*186 O *C 900 602.4
*187 O *C 900 605.4
*188 O *C 900 608.4
*189 O *C 900 611.4
*190 O *C 900 614.4
*191 O *C 900 617.4
*192 O *C 900 620.4
*193 O *C 900 623.4
*194 O *C 900 626.4
*195 O *C 900 629.4
*196 O *C 900 632.4
*197 O *C 900 635.4
*198 O *C 900 638.4
*199 O *C 900 641.4
*200 O *C 900 644.4
*201 O *C 900 647.4
*202 O *C 900 650.4
*203 O *C 900 653.4
*204 O *C 900 656.4
*205 O *C 900 659.4
*206 O *C 900 662.4
*207 O *C 900 665.4
*208 O *C 900 668.4
*209 O *C 900 671.4
*210 O *C 900 674.4
*211 O *C 900 677.4
*212 O *C 900 680.4
*213 O *C 900 683.4
*214 O *C 900 686.4
*215 O *C 900 689.4
*216 O *C 900 692.4
*217 O *C 900 695.4
*218 O *C 900 698.4
*219 O *C 900 701.4
*220 O *C 900 704.4
*221 O *C 900 707.4
*222 O *C 900 710.4
*223 O *C 900 713.4
*224 O *C 900 716.4
*225 O *C 900 719.4
*226 O *C 900 722.4
*227 O *C 900 725.4
*228 O *C 900 728.4
*229 O *C 900 731.4
*230 O *C 900 734.4
*231 O *C 900 737.4
*232 I *C 900 383.4
*233 I *C 900 386.4
*234 I *C 900 389.4
*235 I *C 900 392.4
*236 I *C 900 395.4
*237 I *C 900 398.4
*238 I *C 900 401.4
*239 I *C 900 404.4
*240 I *C 900 407.4
*241 I *C 900 410.4
*242 I *C 900 413.4
*243 I *C 900 416.4
*244 I *C 900 419.4
*245 I *C 900 422.4
*246 I *C 900 425.4
*247 I *C 900 428.4
*248 I *C 900 431.4
*249 I *C 900 434.4
*250 I *C 900 437.4
*251 I *C 900 440.4
*252 I *C 900 443.4
*253 I *C 900 446.4
*254 I *C 900 449.4
*255 I *C 900 452.4
*256 I *C 900 455.4
*257 I *C 900 458.4
*258 I *C 900 461.4
*259 I *C 900 464.4
*260 I *C 900 467.4
*261 I *C 900 470.4
*262 I *C 900 473.4
*263 I *C 900 476.4
*264 I *C 900 479.4
*265 I *C 900 482.4
*266 I *C 900 485.4
*267 I *C 900 488.4
*268 I *C 900 491.4
*269 I *C 900 494.4
*270 I *C 900 497.4
*271 I *C 900 500.4
*272 I *C 900 125.4
*273 I *C 900 128.4
*274 I *C 900 131.4
*275 I *C 900 134.4
*276 I *C 900 137.4
*277 I *C 900 140.4
*278 I *C 900 143.4
*279 I *C 900 146.4
*280 I *C 900 149.4
*281 I *C 900 152.4
*282 I *C 900 155.4
*283 I *C 900 158.4
*284 I *C 900 161.4
*285 I *C 900 164.4
*286 I *C 900 167.4
*287 I *C 900 170.4
*288 I *C 900 173.4
*289 I *C 900 176.4
*290 I *C 900 179.4
*291 I *C 51.6 0
*292 I *C 55.2 0
*293 I *C 58.8 0
*294 I *C 62.4 0
*295 I *C 66 0
*296 I *C 69.6 0
*297 I *C 73.2 0
*298 I *C 76.8 0
*299 I *C 80.4 0
*300 I *C 84 0
*301 I *C 87.6 0
*302 I *C 91.2 0
*303 I *C 94.8 0
*304 I *C 98.4 0
*305 I *C 102 0
*306 I *C 105.6 0
*307 I *C 109.2 0
*308 I *C 112.8 0
*309 I *C 116.4 0
*310 I *C 120 0
*311 I *C 123.6 0
*312 I *C 127.2 0
*313 I *C 130.8 0
*314 I *C 134.4 0
*315 I *C 138 0
*316 I *C 141.6 0
*317 I *C 692.4 0
*318 I *C 696 0
*319 I *C 699.6 0
*320 I *C 703.2 0
*321 I *C 706.8 0
*322 I *C 710.4 0
*323 I *C 714 0
*324 I *C 717.6 0
*325 I *C 721.2 0
*326 I *C 724.8 0
*327 I *C 728.4 0
*328 I *C 732 0
*329 I *C 735.6 0
*330 I *C 739.2 0
*331 I *C 742.8 0
*332 I *C 746.4 0
*333 I *C 750 0
*334 I *C 753.6 0
*335 I *C 757.2 0
*336 I *C 760.8 0
*337 I *C 764.4 0
*338 I *C 768 0
*339 I *C 771.6 0
*340 I *C 775.2 0
*341 I *C 778.8 0
*342 I *C 782.4 0
*343 I *C 786 0
*344 I *C 789.6 0
*345 I *C 793.2 0
*346 I *C 796.8 0
*347 I *C 800.4 0
*348 I *C 804 0
*349 I *C 807.6 0
*350 I *C 145.2 0
*351 I *C 148.8 0
*352 I *C 152.4 0
*353 I *C 156 0
*354 I *C 159.6 0
*355 I *C 163.2 0
*356 I *C 166.8 0
*357 I *C 170.4 0
*358 I *C 174 0
*359 I *C 177.6 0
*360 I *C 181.2 0
*361 I *C 184.8 0
*362 I *C 188.4 0
*363 I *C 192 0
*364 I *C 195.6 0
*365 I *C 199.2 0
*366 I *C 202.8 0
*367 I *C 206.4 0
*368 I *C 210 0
*369 I *C 213.6 0
*370 I *C 217.2 0
*371 I *C 220.8 0
*372 I *C 224.4 0
*373 I *C 228 0
*374 I *C 231.6 0
*375 I *C 235.2 0
*376 I *C 238.8 0
*377 I *C 242.4 0
*378 I *C 246 0
*379 I *C 249.6 0
*380 I *C 253.2 0
*381 I *C 256.8 0
*382 I *C 260.4 0
*383 I *C 264 0
*384 I *C 267.6 0
*385 I *C 271.2 0
*386 I *C 274.8 0
*387 I *C 278.4 0
*388 I *C 282 0
*389 I *C 285.6 0
*390 I *C 289.2 0
*391 I *C 292.8 0
*392 I *C 296.4 0
*393 I *C 300 0
*394 I *C 303.6 0
*395 I *C 307.2 0
*396 I *C 310.8 0
*397 I *C 314.4 0
*398 I *C 318 0
*399 I *C 321.6 0
*400 I *C 325.2 0
*401 I *C 328.8 0
*402 I *C 332.4 0
*403 I *C 336 0
*404 I *C 339.6 0
*405 I *C 343.2 0
*406 I *C 346.8 0
*407 I *C 350.4 0
*408 I *C 354 0
*409 I *C 357.6 0
*410 I *C 361.2 0
*411 I *C 364.8 0
*412 I *C 368.4 0
*413 I *C 372 0
*414 I *C 375.6 0
*415 I *C 379.2 0
*416 I *C 382.8 0
*417 I *C 386.4 0
*418 I *C 390 0
*419 I *C 393.6 0
*420 I *C 397.2 0
*421 I *C 400.8 0
*422 I *C 404.4 0
*423 I *C 408 0
*424 I *C 411.6 0
*425 I *C 415.2 0
*426 I *C 418.8 0
*427 I *C 422.4 0
*428 I *C 426 0
*429 I *C 429.6 0
*430 I *C 433.2 0
*431 I *C 436.8 0
*432 I *C 440.4 0
*433 I *C 444 0
*434 I *C 447.6 0
*435 I *C 451.2 0
*436 I *C 454.8 0
*437 I *C 458.4 0
*438 I *C 462 0
*439 I *C 465.6 0
*440 I *C 469.2 0
*441 I *C 472.8 0
*442 I *C 476.4 0
*443 I *C 480 0
*444 I *C 483.6 0
*445 I *C 487.2 0
*446 I *C 490.8 0
*447 I *C 494.4 0
*448 I *C 498 0
*449 I *C 501.6 0
*450 I *C 505.2 0
*451 I *C 508.8 0
*452 I *C 512.4 0
*453 I *C 516 0
*454 I *C 519.6 0
*455 I *C 523.2 0
*456 I *C 526.8 0
*457 I *C 530.4 0
*458 I *C 534 0
*459 I *C 537.6 0
*460 I *C 541.2 0
*461 I *C 544.8 0
*462 I *C 548.4 0
*463 I *C 552 0
*464 I *C 555.6 0
*465 I *C 559.2 0
*466 I *C 562.8 0
*467 I *C 566.4 0
*468 I *C 570 0
*469 I *C 573.6 0
*470 I *C 577.2 0
*471 I *C 580.8 0
*472 I *C 584.4 0
*473 I *C 588 0
*474 I *C 591.6 0
*475 I *C 595.2 0
*476 I *C 598.8 0
*477 I *C 602.4 0
*478 I *C 606 0
*479 I *C 609.6 0
*480 I *C 613.2 0
*481 I *C 616.8 0
*482 I *C 620.4 0
*483 I *C 624 0
*484 O *C 811.2 0
*485 I *C 0 163.2
*486 O *C 0 166.8
*487 O *C 0 170.4
*488 O *C 0 174
*489 O *C 0 177.6
*490 O *C 0 181.2
*491 O *C 0 184.8
*492 O *C 0 188.4
*493 O *C 0 192
*494 O *C 0 195.6
*495 O *C 0 199.2
*496 O *C 0 202.8
*497 O *C 0 206.4
*498 O *C 0 210
*499 O *C 0 213.6
*500 O *C 0 217.2
*501 O *C 0 220.8
*502 O *C 0 224.4
*503 O *C 0 228
*504 O *C 0 231.6
*505 O *C 0 235.2
*506 O *C 0 238.8
*507 O *C 0 242.4
*508 O *C 0 246
*509 O *C 0 249.6
*510 O *C 0 253.2
*511 O *C 0 256.8
*512 O *C 0 260.4
*513 O *C 0 264
*514 O *C 0 267.6
*515 O *C 0 271.2
*516 O *C 0 274.8
*517 O *C 0 278.4
*518 O *C 0 282
*519 O *C 0 285.6
*520 O *C 0 289.2
*521 O *C 0 292.8
*522 O *C 0 296.4
*523 O *C 0 300
*524 O *C 0 303.6
*525 O *C 0 307.2
*526 O *C 0 310.8
*527 O *C 0 314.4
*528 O *C 0 318
*529 O *C 0 321.6
*530 O *C 0 325.2
*531 O *C 0 328.8
*532 O *C 0 332.4
*533 O *C 0 336
*534 O *C 0 339.6
*535 O *C 0 343.2
*536 O *C 0 346.8
*537 O *C 0 350.4
*538 O *C 0 354
*539 O *C 0 357.6
*540 O *C 0 361.2
*541 O *C 0 364.8
*542 O *C 0 368.4
*543 O *C 0 372
*544 O *C 0 375.6
*545 O *C 0 379.2
*546 O *C 0 382.8
*547 O *C 0 386.4
*548 O *C 0 390
*549 O *C 900 182.4
*550 O *C 900 185.4
*551 O *C 900 188.4
*552 O *C 900 191.4
*553 O *C 900 194.4
*554 O *C 900 197.4
*555 O *C 900 200.4
*556 O *C 900 203.4
*557 O *C 900 206.4
*558 O *C 900 209.4
*559 O *C 900 212.4
*560 O *C 900 215.4
*561 O *C 900 218.4
*562 O *C 900 221.4
*563 O *C 900 224.4
*564 O *C 900 227.4
*565 O *C 900 230.4
*566 O *C 900 233.4
*567 O *C 900 236.4
*568 O *C 900 239.4
*569 O *C 900 242.4
*570 O *C 900 245.4
*571 O *C 900 248.4
*572 O *C 900 251.4
*573 O *C 900 254.4
*574 O *C 900 257.4
*575 O *C 900 260.4
*576 O *C 900 263.4
*577 O *C 900 266.4
*578 O *C 900 269.4
*579 O *C 900 272.4
*580 O *C 900 275.4
*581 O *C 900 278.4
*582 O *C 0 393.6
*583 O *C 0 397.2
*584 O *C 0 400.8
*585 O *C 0 404.4
*586 O *C 0 408
*587 O *C 0 411.6
*588 O *C 0 415.2
*589 O *C 0 418.8
*590 O *C 0 422.4
*591 O *C 0 426
*592 O *C 0 429.6
*593 O *C 0 433.2
*594 O *C 0 436.8
*595 O *C 0 440.4
*596 O *C 0 444
*597 O *C 0 447.6
*598 O *C 0 451.2
*599 O *C 0 454.8
*600 O *C 0 458.4
*601 O *C 0 462
*602 O *C 0 465.6
*603 O *C 0 469.2
*604 O *C 0 472.8
*605 O *C 0 476.4
*606 O *C 0 480
*607 O *C 0 483.6
*608 O *C 0 487.2
*609 O *C 0 490.8
*610 O *C 0 494.4
*611 O *C 0 498
*612 O *C 0 501.6
*613 O *C 900 281.4
*614 O *C 900 284.4
*615 O *C 900 287.4
*616 O *C 900 290.4
*617 O *C 900 293.4
*618 O *C 900 296.4
*619 O *C 900 299.4
*620 O *C 900 302.4
*621 O *C 900 305.4
*622 O *C 900 308.4
*623 O *C 900 311.4
*624 O *C 900 314.4
*625 O *C 900 317.4
*626 O *C 900 320.4
*627 O *C 900 323.4
*628 O *C 900 326.4
*629 O *C 900 329.4
*630 O *C 900 332.4
*631 O *C 900 335.4
*632 O *C 900 338.4
*633 O *C 900 341.4
*634 O *C 900 344.4
*635 O *C 900 347.4
*636 O *C 900 350.4
*637 O *C 900 353.4
*638 O *C 900 356.4
*639 O *C 900 359.4
*640 O *C 900 362.4
*641 O *C 900 365.4
*642 O *C 900 368.4
*643 O *C 900 371.4
*644 O *C 900 374.4
*645 O *C 900 377.4
*646 O *C 900 380.4
*647 I *C 0 48
*648 I *C 0 51.6
*649 I *C 0 55.2
*650 I *C 0 58.8
*651 O *C 0 62.4
*652 O *C 0 66
*653 O *C 0 69.6
*654 O *C 0 73.2
*655 I *C 900 26.4


*D_NET *1 0

*CONN
*P *1 I *C 0 505.2 *L 0
*I *658:clk_i I *C 50.3 339.2 *L 0 *D ibex_top
*I *659:phi2 I *C 261.35 706.33 *L 0 *D sram_top
*I *660:CLK I *C 143.98 756.54 *L 0 *D imem
*I *661:CLK I *C 776.48 756.54 *L 0 *D dmem

*CAP

*RES
1 *1:78 *661:CLK 0.2235
2 *1:77 *1:78 1.192
3 *1:76 *1:77 3
4 *1:75 *1:76 2.384
5 *1:74 *1:75 3
6 *1:73 *1:74 1.26
7 *1:72 *1:73 3
8 *1:71 *1:72 19.817
9 *1:70 *1:71 3
10 *1:69 *1:70 72.408
11 *1:68 *1:69 3
12 *1:67 *1:68 3.874
13 *1:66 *1:67 3
14 *1:65 *1:66 20.115
15 *1:64 *1:65 0.149
16 *1:62 *1:64 121.286
17 *1:61 *660:CLK 0.3725
18 *1:60 *1:62 3
19 *1:59 *1:61 0.149
20 *1:58 *1:60 4.023
21 *1:57 *1:59 2.086
22 *1:56 *1:58 0.149
23 *1:55 *1:57 6
24 *1:54 *1:56 3.576
25 *1:53 *1:55 0.447
26 *1:52 *1:54 3
27 *1:51 *1:53 6
28 *659:phi2 *1:52 0.298
29 *1:50 *1:51 4.47
30 *1:48 *1:50 6
31 *1:47 *659:phi2 4.321
32 *1:46 *1:48 0.149
33 *1:45 *1:47 3
34 *1:44 *1:46 6
35 *1:43 *1:45 1.788
36 *1:42 *1:44 9.089
37 *1:41 *1:43 3
38 *1:40 *1:42 3
39 *1:40 *1:41 39.187
40 *1:39 *1:40 26.224
41 *1:38 *1:39 3
42 *1:36 *1:38 33.525
43 *1:35 *658:clk_i 0.149
44 *1:34 *1:36 3
45 *1:33 *1:35 0.2235
46 *1:32 *1:34 5.215
47 *1:31 *1:33 3
48 *1:30 *1:32 0.149
49 *1:29 *1:31 1.639
50 *1:28 *1:30 5.662
51 *1:27 *1:29 3
52 *1:26 *1:28 3
53 *1:25 *1:27 3
54 *1:24 *1:26 2.98
55 *1:23 *1:25 19.068
56 *1:22 *1:24 0.149
57 *1:21 *1:23 3
58 *1:20 *1:22 10.877
59 *1:19 *1:21 53.193
60 *1:18 *1:20 3
61 *1:17 *1:19 3
62 *1:16 *1:18 19.068
63 *1:15 *1:17 11.175
64 *1:14 *1:16 3
65 *1:13 *1:15 3
66 *1:12 *1:14 3.129
67 *1:11 *1:13 9.685
68 *1:10 *1:12 0.149
69 *1:9 *1:11 3
70 *1:8 *1:10 15.794
71 *1:7 *1:9 19.966
72 *1:6 *1:8 0.149
73 *1:5 *1:7 3
74 *1:5 *1:6 9.983
75 *1:4 *1:5 1.043
76 *1:3 *1:4 3
77 *1:2 *1:3 2.533
78 *1:0 *1:2 3
79 *1:0 *1 0.2235
*END

*D_NET *2 0

*CONN
*I *659:resetn I *C 539.41 702.78 *L 0 *D sram_top
*I *658:rst_ni I *C 50.3 346.4 *L 0 *D ibex_top
*P *2 I *C 0 508.8 *L 0

*CAP

*RES
1 *2:56 *2 1.1175
2 *2:55 *2:56 3
3 *2:53 *2:55 9.089
4 *2:52 *658:rst_ni 0.149
5 *2:51 *2:53 3
6 *2:50 *2:52 0.3725
7 *2:49 *2:51 9.387
8 *2:48 *2:50 3
9 *2:47 *2:49 3
10 *2:46 *2:48 1.639
11 *2:45 *2:47 13.708
12 *2:44 *2:46 3
13 *2:43 *2:45 3
14 *2:42 *2:44 0.149
15 *2:41 *2:43 3
16 *2:40 *2:42 3
17 *2:39 *2:41 18.48
18 *2:38 *2:40 0.168
19 *2:37 *2:39 3
20 *2:36 *2:38 0.168
21 *2:35 *2:37 50.66
22 *2:34 *2:36 22.008
23 *2:34 *2:35 3
24 *2:33 *2:34 55.02
25 *2:32 *2:33 3
26 *2:31 *2:32 84.483
27 *2:30 *2:31 3
28 *2:29 *2:30 305.928
29 *2:28 *2:29 3
30 *2:27 *2:28 3
31 *2:26 *2:27 4.768
32 *2:25 *2:26 0.447
33 *2:24 *2:25 29.651
34 *2:23 *2:24 3
35 *2:22 *2:23 135.441
36 *2:21 *2:22 3
37 *2:20 *2:21 9.387
38 *2:19 *2:20 3
39 *2:18 *2:19 47.978
40 *2:17 *2:18 3
41 *2:16 *2:17 22.35
42 *2:15 *2:16 3
43 *2:14 *2:15 1.937
44 *2:13 *2:14 3
45 *2:12 *2:13 5.364
46 *2:11 *2:12 3
47 *2:10 *2:11 30.694
48 *2:9 *2:10 3
49 *2:8 *2:9 86.122
50 *2:7 *2:8 6
51 *2:6 *2:7 0.149
52 *2:4 *2:6 6
53 *2:3 *659:resetn 1.2665
54 *2:2 *2:4 3.78
55 *2:1 *2:3 6
56 *2:1 *2:2 6
57 *2:0 *2:1 0.2235
*END

*D_NET *3 0

*CONN