*SPEF "IEEE 1481-1998"
*DESIGN "mult8x8"
*DATE "Fri May 29 13:00:12 2020"
*VENDOR "Cadence Design Systems, Inc."
*PROGRAM "Innovus"
*VERSION "19.10-p002_1"
*DESIGN_FLOW "COUPLING C" "PIN_CAP NONE" "NAME_SCOPE LOCAL"
*DIVIDER /
*DELIMITER :
*BUS_DELIMITER []
*T_UNIT 1 NS
*C_UNIT 1 PF
*R_UNIT 1 OHM
*L_UNIT 1 HENRY

// MMMC spef file for corner 'typical_rc'

*NAME_MAP

*1 FE_OCPN143_FE_OFN32_resetn
*2 FE_RN_12_0
*3 FE_RN_11_0
*4 FE_OFN142_resetn
*5 FE_RN_10_0
*6 FE_RN_9_0
*7 FE_RN_8_0
*8 FE_RN_7_0
*9 FE_RN_6_0
*10 FE_RN_5_0
*11 FE_RN_4_0
*12 FE_RN_3_0
*13 FE_RN_2_0
*14 FE_RN_1_0
*15 FE_RN_0_0
*16 FE_OFN131_FE_DBTN13_resetn
*17 FE_OFN126_resetn
*18 FE_OFN121_FE_DBTN9_n253
*19 FE_OFN86_FE_DBTN5_n243
*20 FE_OFN85_FE_DBTN5_n243
*21 FE_OFN120_FE_DBTN13_resetn
*22 FE_OFN119_resetn
*23 FE_OFN83_n
*24 FE_OFN82_n
*25 FE_OFN81_n
*26 FE_OFN80_n
*27 FE_OFN79_n
*28 FE_OFN78_n
*29 FE_OFN77_n
*30 FE_OFN76_n
*31 FE_OFN75_n
*32 FE_OFN74_n
*33 FE_OFN73_FE_OFN22_resetn
*34 FE_OFN72_FE_OFN65_FE_DBTN0_n238
*35 FE_OFN71_FE_OFN65_FE_DBTN0_n238
*36 FE_OFN70_n
*37 FE_OFN69_resetn
*38 FE_OFN68_b_3
*39 FE_OFN67_n241
*40 FE_OFN66_n241
*41 FE_OFN65_FE_DBTN0_n238
*42 FE_OFN61_FE_DBTN7_n257
*43 FE_OFN60_FE_DBTN7_n257
*44 FE_OFN59_FE_DBTN7_n257
*45 FE_OFN58_FE_DBTN8_n255
*46 FE_OFN57_FE_DBTN8_n255
*47 FE_OFN56_FE_DBTN8_n255
*48 FE_OFN54_FE_DBTN9_n253
*49 FE_OFN53_FE_DBTN10_n246
*50 FE_OFN52_FE_DBTN10_n246
*51 FE_OFN43_FE_DBTN13_resetn
*52 FE_OFN41_FE_DBTN13_resetn
*53 FE_OFN40_FE_DBTN13_resetn
*54 FE_OFN37_FE_DBTN13_resetn
*55 FE_OFN36_FE_DBTN13_resetn
*56 FE_OFN35_FE_DBTN13_resetn
*57 FE_OFN34_resetn
*58 FE_OFN32_resetn
*59 FE_OFN31_resetn
*60 FE_OFN30_resetn
*61 FE_OFN29_resetn
*62 FE_OFN28_resetn
*63 FE_OFN27_resetn
*64 FE_OFN26_resetn
*65 FE_OFN25_resetn
*66 FE_OFN24_resetn
*67 FE_OFN22_resetn
*68 FE_OFN21_resetn
*69 FE_OFN18_resetn
*70 FE_OFN17_resetn
*71 FE_OFN16_resetn
*72 FE_OFN15_resetn
*73 FE_OFN13_FE_DBTN1_msb34_1
*74 FE_OFN12_FE_DBTN1_msb34_1
*75 FE_OFN11_FE_DBTN2_msb12_0
*76 FE_OFN10_FE_DBTN2_msb12_0
*77 FE_OFN9_FE_DBTN2_msb12_0
*78 FE_OFN8_FE_DBTN3_msb12_1
*79 FE_OFN7_FE_DBTN3_msb12_1
*80 FE_OFN6_FE_DBTN4_lsb12_0
*81 FE_OFN5_FE_DBTN4_lsb12_0
*82 FE_OFN4_FE_DBTN6_lsb12_1
*83 FE_OFN3_FE_DBTN6_lsb12_1
*84 FE_OFN2_FE_DBTN11_msb34_0
*85 FE_OFN1_FE_DBTN12_lsb34_0
*86 FE_OFN0_FE_DBTN12_lsb34_0
*87 FE_DBTN13_resetn
*88 FE_DBTN12_lsb34_0
*89 FE_DBTN11_msb34_0
*90 FE_DBTN10_n246
*91 FE_DBTN9_n253
*92 FE_DBTN8_n255
*93 FE_DBTN7_n257
*94 FE_DBTN6_lsb12_1
*95 FE_DBTN5_n243
*96 FE_DBTN4_lsb12_0
*97 FE_DBTN3_msb12_1
*98 FE_DBTN2_msb12_0
*99 FE_DBTN1_msb34_1
*100 a[7]
*101 a[6]
*102 a[5]
*103 a[4]
*104 a[3]
*105 a[2]
*106 a[1]
*107 a[0]
*108 b[7]
*109 b[6]
*110 b[5]
*111 b[4]
*112 b[3]
*113 b[2]
*114 b[1]
*115 b[0]
*116 result[15]
*117 result[14]
*118 result[13]
*119 result[12]
*120 result[11]
*121 result[10]
*122 result[9]
*123 result[8]
*124 result[7]
*125 result[6]
*126 result[5]
*127 result[4]
*128 result[3]
*129 result[2]
*130 result[1]
*131 result[0]
*132 clk
*133 resetn
*134 lsb34_0_
*135 sum_0_
*136 sum1_0_
*137 sum2_0_
*138 sum3_0_
*139 N2
*140 N3
*141 N4
*142 N6
*143 N7
*144 N8
*145 N9
*146 N10
*147 N11
*148 N12
*149 N13
*150 N14
*151 N15
*152 N16
*153 N17
*154 N19
*155 N20
*156 N21
*157 N22
*158 N23
*159 N24
*160 N25
*161 N26
*162 N28
*163 N29
*164 N30
*165 N31
*166 N32
*167 N33
*168 N34
*169 N35
*170 N37
*171 N38
*172 N39
*173 N40
*174 N41
*175 N42
*176 N43
*177 N44
*178 N46
*179 N47
*180 N48
*181 N49
*182 N50
*183 N51
*184 N52
*185 N53
*186 N55
*187 N56
*188 N57
*189 N58
*190 N59
*191 N60
*192 N61
*193 N62
*194 N64
*195 N66
*196 N67
*197 N68
*198 N69
*199 N70
*200 N71
*201 N73
*202 N74
*203 N75
*204 N76
*205 N77
*206 N78
*207 N79
*208 N80
*209 N82
*210 N83
*211 N84
*212 N85
*213 N86
*214 N89
*215 N90
*216 N91
*217 N94
*218 N95
*219 N96
*220 N97
*221 N98
*222 N99
*223 N100
*224 N101
*225 N102
*226 N105
*227 N106
*228 N107
*229 N108
*230 N109
*231 N110
*232 N112
*233 N113
*234 N116
*235 N117
*236 N118
*237 N119
*238 N120
*239 N122
*240 N123
*241 N124
*242 N125
*243 N126
*244 N127
*245 N128
*246 N129
*247 N130
*248 N131
*249 N132
*250 N135
*251 N136
*252 N137
*253 N138
*254 N139
*255 N141
*256 N142
*257 N143
*258 N144
*259 N145
*260 N148
*261 N149
*262 N150
*263 N151
*264 N152
*265 N153
*266 N154
*267 N155
*268 N156
*269 N157
*270 intadd_0_SUM_3_
*271 intadd_1_SUM_3_
*272 intadd_1_SUM_2_
*273 intadd_3_SUM_4_
*274 intadd_4_SUM_3_
*275 n780
*276 n890
*277 n970
*278 n980
*279 n990
*280 n1000
*281 n1010
*282 n1020
*283 n103
*284 n104
*285 n1050
*286 n1060
*287 n1070
*288 n1080
*289 n1090
*290 n1100
*291 n111
*292 n1120
*293 n1130
*294 n114
*295 n115
*296 n1160
*297 n1170
*298 n1180
*299 n1190
*300 n1200
*301 n121
*302 n1220
*303 n1230
*304 n1240
*305 n1250
*306 n1260
*307 n1270
*308 n1280
*309 n1290
*310 n1300
*311 n1310
*312 n1320
*313 n133
*314 n134
*315 n1350
*316 n1360
*317 n1370
*318 n1380
*319 n1390
*320 n140
*321 n1410
*322 n1420
*323 n1430
*324 n1440
*325 n1450
*326 n146
*327 n147
*328 n1480
*329 n1490
*330 n1500
*331 n1520
*332 n1530
*333 n1540
*334 n1550
*335 n1560
*336 n1570
*337 n158
*338 n159
*339 n160
*340 n161
*341 n162
*342 n163
*343 n164
*344 n165
*345 n166
*346 n167
*347 n168
*348 n169
*349 n170
*350 n171
*351 n172
*352 n173
*353 n174
*354 n175
*355 n176
*356 n177
*357 n178
*358 n179
*359 n180
*360 n181
*361 n182
*362 n183
*363 n184
*364 n185
*365 n186
*366 n187
*367 n188
*368 n189
*369 n190
*370 n191
*371 n192
*372 n193
*373 n194
*374 n195
*375 n196
*376 n197
*377 n198
*378 n199
*379 n200
*380 n201
*381 n202
*382 n203
*383 n204
*384 n205
*385 n206
*386 n207
*387 n208
*388 n209
*389 n210
*390 n211
*391 n212
*392 n213
*393 n214
*394 n215
*395 n216
*396 n217
*397 n218
*398 n219
*399 n220
*400 n221
*401 n222
*402 n223
*403 n224
*404 n225
*405 n226
*406 n227
*407 n228
*408 n229
*409 n231
*410 n232
*411 n233
*412 n234
*413 n235
*414 n236
*415 n237
*416 n238
*417 n241
*418 n243
*419 n245
*420 n246
*421 n253
*422 n255
*423 n257
*424 n258
*425 n259
*426 n260
*427 n261
*428 n262
*429 n263
*430 n264
*431 n265
*432 n266
*433 n267
*434 n268
*435 n269
*436 n270
*437 n271
*438 n272
*439 n273
*440 n274
*441 n275
*442 n276
*443 n277
*444 n278
*445 n282
*446 n283
*447 n284
*448 n285
*449 n286
*450 n287
*451 n288
*452 n289
*453 n290
*454 n291
*455 n292
*456 n293
*457 n294
*458 n295
*459 n296
*460 n297
*461 n298
*462 n299
*463 n300
*464 n301
*465 n302
*466 n303
*467 n304
*468 n305
*469 n306
*470 n307
*471 n308
*472 n309
*473 n310
*474 n311
*475 n312
*476 n313
*477 n314
*478 n315
*479 n316
*480 n317
*481 n318
*482 n319
*483 n320
*484 n321
*485 n322
*486 n323
*487 n324
*488 n325
*489 n326
*490 n327
*491 n328
*492 n329
*493 n330
*494 n331
*495 n332
*496 n334
*497 n335
*498 n336
*499 n337
*500 n338
*501 n339
*502 n340
*503 n341
*504 n342
*505 n343
*506 n344
*507 n345
*508 n346
*509 n348
*510 n349
*511 n350
*512 n351
*513 n352
*514 n353
*515 n354
*516 n355
*517 n356
*518 n357
*519 n358
*520 n359
*521 n360
*522 n361
*523 n362
*524 n363
*525 n364
*526 n365
*527 n366
*528 n368
*529 n369
*530 n370
*531 n371
*532 n372
*533 n373
*534 n374
*535 n375
*536 n376
*537 n377
*538 n378
*539 n381
*540 n382
*541 n383
*542 n384
*543 n385
*544 n386
*545 n387
*546 n388
*547 n389
*548 n390
*549 n391
*550 n392
*551 n393
*552 n394
*553 n395
*554 n396
*555 n397
*556 n398
*557 n399
*558 n400
*559 n401
*560 n402
*561 n403
*562 n404
*563 n405
*564 n406
*565 n408
*566 n409
*567 n410
*568 n411
*569 n412
*570 n413
*571 n414
*572 n415
*573 n416
*574 n417
*575 n418
*576 n419
*577 n420
*578 n421
*579 n422
*580 n423
*581 n424
*582 n425
*583 n426
*584 n427
*585 n429
*586 n430
*587 n431
*588 n432
*589 n433
*590 n434
*591 n435
*592 n436
*593 n437
*594 n438
*595 n439
*596 n440
*597 n441
*598 n443
*599 n444
*600 n445
*601 n446
*602 n447
*603 n448
*604 n449
*605 n450
*606 n451
*607 n453
*608 n456
*609 n457
*610 n458
*611 n459
*612 n460
*613 n461
*614 n462
*615 n463
*616 n464
*617 n465
*618 n466
*619 n467
*620 n468
*621 n469
*622 n470
*623 n471
*624 n472
*625 n473
*626 n474
*627 n475
*628 n476
*629 n477
*630 n478
*631 n479
*632 n480
*633 n481
*634 n482
*635 n483
*636 n484
*637 n485
*638 n487
*639 n488
*640 n489
*641 n490
*642 n491
*643 n493
*644 n494
*645 n495
*646 n497
*647 n511
*648 n512
*649 n513
*650 n514
*651 n515
*652 n516
*653 n517
*654 n521
*655 lsb12[1]
*656 lsb12[0]
*657 msb12[1]
*658 msb12[0]
*659 msb34[1]
*660 msb34[0]
*661 pip_pp[14]
*662 pip_pp[13]
*663 pip_pp[12]
*664 pip_pp[11]
*665 pip_pp[10]
*666 pip_pp[9]
*667 pip_pp[8]
*668 pip_pp[7]
*669 pip_pp[6]
*670 pip_pp[5]
*671 pip_pp[4]
*672 pip_pp[3]
*673 pip_pp[2]
*674 pip_pp[1]
*675 pip_pp[0]
*676 pip_pp1[14]
*677 pip_pp1[13]
*678 pip_pp1[12]
*679 pip_pp1[11]
*680 pip_pp1[10]
*681 pip_pp1[9]
*682 pip_pp1[8]
*683 pip_pp1[7]
*684 pip_pp1[6]
*685 pip_pp1[5]
*686 pip_pp1[4]
*687 pip_pp1[3]
*688 pip_pp1[2]
*689 pip_pp1[1]
*690 pip_pp1[0]
*691 pip_pp2[14]
*692 pip_pp2[13]
*693 pip_pp2[12]
*694 pip_pp2[11]
*695 pip_pp2[10]
*696 pip_pp2[9]
*697 pip_pp2[8]
*698 pip_pp2[7]
*699 pip_pp2[6]
*700 pip_pp2[5]
*701 pip_pp2[4]
*702 pip_pp2[3]
*703 pip_pp2[2]
*704 pip_pp2[1]
*705 pip_pp2[0]
*706 pip_pp3[14]
*707 pip_pp3[13]
*708 pip_pp3[12]
*709 pip_pp3[11]
*710 pip_pp3[10]
*711 pip_pp3[9]
*712 pip_pp3[8]
*713 pip_pp3[7]
*714 pip_pp3[6]
*715 pip_pp3[5]
*716 pip_pp3[4]
*717 pip_pp3[3]
*718 pip_pp3[2]
*719 pip_pp3[1]
*720 pip_pp3[0]
*721 pip_sum[9]
*722 pip_sum[8]
*723 pip_sum[7]
*724 pip_sum[6]
*725 pip_sum[5]
*726 pip_sum[4]
*727 pip_sum[3]
*728 pip_sum[2]
*729 pip_sum1[9]
*730 pip_sum1[8]
*731 pip_sum1[7]
*732 pip_sum1[6]
*733 pip_sum1[5]
*734 pip_sum1[4]
*735 pip_sum1[3]
*736 pip_sum1[2]
*737 pip_sum1[1]
*738 pip_sum1[0]
*739 pip_sum2[9]
*740 pip_sum2[8]
*741 pip_sum2[7]
*742 pip_sum2[6]
*743 pip_sum2[5]
*744 pip_sum2[4]
*745 pip_sum2[3]
*746 pip_sum2[2]
*747 pip_sum3[9]
*748 pip_sum3[8]
*749 pip_sum3[7]
*750 pip_sum3[6]
*751 pip_sum3[5]
*752 pip_sum3[4]
*753 pip_sum3[3]
*754 pip_sum3[2]
*755 pip_sum3[1]
*756 pip_sum3[0]
*757 delay_a[7]
*758 delay_a[6]
*759 delay_a[5]
*760 delay_a[4]
*761 delay_a[3]
*762 delay_a[2]
*763 delay_a[1]
*764 delay_a[0]
*765 pip_sum_sum[12]
*766 pip_sum_sum[11]
*767 pip_sum_sum[10]
*768 pip_sum_sum[9]
*769 pip_sum_sum[8]
*770 pip_sum_sum[7]
*771 pip_sum_sum[6]
*772 pip_sum_sum[5]
*773 pip_sum_sum[4]
*774 pip_sum_sum1[11]
*775 pip_sum_sum1[10]
*776 pip_sum_sum1[9]
*777 pip_sum_sum1[8]
*778 pip_sum_sum1[7]
*779 pip_sum_sum1[6]
*780 pip_sum_sum1[5]
*781 pip_sum_sum1[4]
*782 pip_sum_sum1[3]
*783 pip_sum_sum1[2]
*784 pip_sum_sum1[1]
*785 pip_sum_sum1[0]
*786 sum_sum[1]
*787 sum_sum[0]
*788 sum_sum1[1]
*789 sum_sum1[0]
*790 FE_OCPC143_FE_OFN32_resetn
*791 FE_RC_50_0
*792 FE_RC_49_0
*793 FE_RC_48_0
*794 FE_RC_47_0
*795 FE_RC_46_0
*796 FE_RC_45_0
*797 FE_RC_44_0
*798 FE_RC_43_0
*799 FE_RC_42_0
*800 FE_RC_41_0
*801 FE_RC_40_0
*802 FE_RC_39_0
*803 FE_RC_38_0
*804 FE_OFC142_resetn
*805 FE_RC_37_0
*806 FE_RC_36_0
*807 FE_RC_35_0
*808 FE_RC_34_0
*809 FE_RC_33_0
*810 FE_RC_31_0
*811 FE_RC_28_0
*812 FE_RC_27_0
*813 FE_RC_26_0
*814 FE_RC_25_0
*815 FE_RC_23_0
*816 FE_RC_21_0
*817 FE_RC_20_0
*818 FE_RC_19_0
*819 FE_RC_17_0
*820 FE_RC_16_0
*821 FE_RC_15_0
*822 FE_RC_14_0
*823 FE_RC_13_0
*824 FE_RC_12_0
*825 FE_RC_11_0
*826 FE_RC_10_0
*827 FE_RC_9_0
*828 FE_RC_8_0
*829 FE_RC_7_0
*830 FE_RC_6_0
*831 FE_RC_5_0
*832 FE_RC_4_0
*833 FE_RC_3_0
*834 FE_RC_2_0
*835 FE_RC_1_0
*836 FE_RC_0_0
*837 FE_OFC131_FE_DBTN13_resetn
*838 FE_OFC126_resetn
*839 FE_OFC121_FE_DBTN9_n253
*840 FE_OFC133_FE_DBTN5_n243
*841 FE_OFC132_FE_DBTN5_n243
*842 FE_OFC120_FE_DBTN13_resetn
*843 FE_OFC119_resetn
*844 FE_OFC130_FE_DBTN13_resetn
*845 FE_OFC129_FE_DBTN13_resetn
*846 FE_OFC128_FE_DBTN13_resetn
*847 FE_OFC127_FE_DBTN13_resetn
*848 FE_OFC126_FE_DBTN13_resetn
*849 FE_OFC125_resetn
*850 FE_OFC124_resetn
*851 FE_OFC123_resetn
*852 FE_OFC122_resetn
*853 FE_OFC121_resetn
*854 FE_OFC120_FE_OFN22_resetn
*855 FE_OFC119_FE_OFN65_FE_DBTN0_n238
*856 FE_OFC118_FE_OFN65_FE_DBTN0_n238
*857 FE_OFC117_n169
*858 FE_OFC115_n238
*859 FE_OFC114_n202
*860 FE_OFC113_resetn
*861 FE_OFC112_resetn
*862 FE_OFC111_resetn
*863 FE_OFC110_resetn
*864 FE_OFC109_n384
*865 FE_OFC108_n246
*866 FE_OFC107_n246
*867 FE_OFC106_n246
*868 FE_OFC105_n301
*869 FE_OFC104_n196
*870 FE_OFC103_n481
*871 FE_OFC101_n243
*872 FE_OFC100_n253
*873 FE_OFC98_n253
*874 FE_OFC92_n241
*875 FE_OFC91_n241
*876 FE_OFC90_n241
*877 FE_OFC83_resetn
*878 FE_OFC81_resetn
*879 FE_OFC80_resetn
*880 FE_OFC78_resetn
*881 FE_OFC75_resetn
*882 FE_OFC74_resetn
*883 FE_OFC73_resetn
*884 FE_OFC72_resetn
*885 FE_OFC71_resetn
*886 FE_OFC70_resetn
*887 FE_OFC68_b_3
*888 FE_OFC61_FE_DBTN7_n257
*889 FE_OFC60_FE_DBTN7_n257
*890 FE_OFC59_FE_DBTN7_n257
*891 FE_OFC58_FE_DBTN8_n255
*892 FE_OFC57_FE_DBTN8_n255
*893 FE_OFC56_FE_DBTN8_n255
*894 FE_OFC43_FE_DBTN13_resetn
*895 FE_OFC37_FE_DBTN13_resetn
*896 FE_OFC35_FE_DBTN13_resetn
*897 FE_OFC31_resetn
*898 FE_OFC30_resetn
*899 FE_OFC28_resetn
*900 FE_OFC27_resetn
*901 FE_OFC25_resetn
*902 FE_OFC24_resetn
*903 FE_OFC21_resetn
*904 FE_OFC18_resetn
*905 FE_OFC13_FE_DBTN1_msb34_1
*906 FE_OFC12_FE_DBTN1_msb34_1
*907 FE_OFC11_FE_DBTN2_msb12_0
*908 FE_OFC10_FE_DBTN2_msb12_0
*909 FE_OFC9_FE_DBTN2_msb12_0
*910 FE_OFC8_FE_DBTN3_msb12_1
*911 FE_OFC7_FE_DBTN3_msb12_1
*912 FE_OFC6_FE_DBTN4_lsb12_0
*913 FE_OFC5_FE_DBTN4_lsb12_0
*914 FE_OFC4_FE_DBTN6_lsb12_1
*915 FE_OFC3_FE_DBTN6_lsb12_1
*916 FE_OFC2_FE_DBTN11_msb34_0
*917 FE_OFC1_FE_DBTN12_lsb34_0
*918 FE_OFC0_FE_DBTN12_lsb34_0
*919 FE_DBTC12_lsb34_0
*920 FE_DBTC11_msb34_0
*921 FE_DBTC8_n255
*922 FE_DBTC7_n257
*923 FE_DBTC6_lsb12_1
*924 FE_DBTC4_lsb12_0
*925 FE_DBTC3_msb12_1
*926 FE_DBTC2_msb12_0
*927 FE_DBTC1_msb34_1
*928 delay_a_reg_7_
*929 delay_a_reg_6_
*930 delay_a_reg_5_
*931 delay_a_reg_4_
*932 delay_a_reg_3_
*933 delay_a_reg_2_
*934 delay_a_reg_1_
*935 delay_a_reg_0_
*936 pip_sum_sum1_reg_10_
*937 lsb12_reg_1_
*938 lsb12_reg_0_
*939 lsb34_reg_0_
*940 msb12_reg_1_
*941 msb12_reg_0_
*942 msb34_reg_1_
*943 msb34_reg_0_
*944 pip_pp_reg_1__7_
*945 pip_pp_reg_1__6_
*946 pip_pp_reg_1__5_
*947 pip_pp_reg_1__4_
*948 pip_pp_reg_1__3_
*949 pip_pp_reg_1__0_
*950 pip_pp_reg_0__7_
*951 pip_pp_reg_0__6_
*952 pip_pp_reg_0__5_
*953 pip_pp_reg_0__4_
*954 pip_pp_reg_0__3_
*955 pip_pp_reg_0__1_
*956 pip_pp_reg_0__0_
*957 pip_pp1_reg_1__7_
*958 pip_pp1_reg_1__6_
*959 pip_pp1_reg_1__3_
*960 pip_pp1_reg_1__0_
*961 pip_pp1_reg_0__7_
*962 pip_pp1_reg_0__4_
*963 pip_pp1_reg_0__1_
*964 pip_pp1_reg_0__0_
*965 pip_pp2_reg_1__7_
*966 pip_pp2_reg_1__6_
*967 pip_pp2_reg_1__5_
*968 pip_pp2_reg_1__4_
*969 pip_pp2_reg_1__3_
*970 pip_pp2_reg_1__1_
*971 pip_pp2_reg_1__0_
*972 pip_pp2_reg_0__7_
*973 pip_pp2_reg_0__6_
*974 pip_pp2_reg_0__5_
*975 pip_pp2_reg_0__4_
*976 pip_pp2_reg_0__3_
*977 pip_pp2_reg_0__2_
*978 pip_pp2_reg_0__0_
*979 pip_pp3_reg_1__7_
*980 pip_pp3_reg_1__6_
*981 pip_pp3_reg_1__5_
*982 pip_pp3_reg_1__4_
*983 pip_pp3_reg_1__3_
*984 pip_pp3_reg_1__0_
*985 pip_pp3_reg_0__7_
*986 pip_pp3_reg_0__6_
*987 pip_pp3_reg_0__5_
*988 pip_pp3_reg_0__4_
*989 pip_pp3_reg_0__3_
*990 pip_pp3_reg_0__0_
*991 pip_sum_reg_9_
*992 pip_sum_reg_4_
*993 pip_sum_reg_2_
*994 pip_sum_reg_1_
*995 pip_sum_reg_0_
*996 pip_sum1_reg_9_
*997 pip_sum1_reg_4_
*998 pip_sum1_reg_3_
*999 pip_sum1_reg_2_
*1000 pip_sum2_reg_5_
*1001 pip_sum2_reg_4_
*1002 pip_sum2_reg_3_
*1003 pip_sum2_reg_2_
*1004 pip_sum2_reg_1_
*1005 pip_sum2_reg_0_
*1006 pip_sum3_reg_9_
*1007 pip_sum3_reg_5_
*1008 pip_sum3_reg_4_
*1009 pip_sum3_reg_3_
*1010 pip_sum3_reg_2_
*1011 pip_sum3_reg_1_
*1012 pip_sum3_reg_0_
*1013 pip_sum_sum_reg_3_
*1014 pip_sum_sum_reg_2_
*1015 pip_sum_sum_reg_1_
*1016 pip_sum_sum_reg_0_
*1017 pip_sum_sum1_reg_4_
*1018 pip_sum_sum1_reg_6_
*1019 pip_sum_sum1_reg_3_
*1020 pip_sum_sum1_reg_0_
*1021 pip_sum_sum_reg_4_
*1022 pip_sum_sum1_reg_2_
*1023 pip_sum_sum1_reg_5_
*1024 pip_sum_sum1_reg_1_
*1025 pip_sum_sum_reg_12_
*1026 pip_sum_sum_reg_5_
*1027 pip_sum2_reg_8_
*1028 pip_sum_reg_8_
*1029 pip_pp1_reg_1__1_
*1030 pip_sum1_reg_8_
*1031 pip_sum_sum_reg_6_
*1032 pip_pp1_reg_0__2_
*1033 pip_sum3_reg_8_
*1034 pip_pp1_reg_0__3_
*1035 pip_sum_sum_reg_7_
*1036 pip_sum_reg_5_
*1037 pip_sum2_reg_7_
*1038 pip_sum_reg_6_
*1039 pip_sum3_reg_6_
*1040 pip_pp3_reg_1__2_
*1041 pip_pp1_reg_0__6_
*1042 pip_pp_reg_0__2_
*1043 lsb34_reg_1_
*1044 pip_sum1_reg_0_
*1045 pip_sum_sum_reg_9_
*1046 pip_sum_reg_7_
*1047 pip_pp_reg_1__2_
*1048 pip_pp1_reg_1__2_
*1049 pip_pp2_reg_1__2_
*1050 pip_pp2_reg_0__1_
*1051 pip_sum_sum_reg_10_
*1052 pip_sum3_reg_7_
*1053 pip_sum2_reg_9_
*1054 pip_pp_reg_1__1_
*1055 pip_sum_sum_reg_8_
*1056 pip_pp1_reg_1__4_
*1057 pip_sum1_reg_1_
*1058 pip_pp3_reg_0__2_
*1059 pip_pp1_reg_1__5_
*1060 pip_sum2_reg_6_
*1061 pip_pp1_reg_0__5_
*1062 pip_pp3_reg_0__1_
*1063 pip_sum1_reg_7_
*1064 pip_sum_sum1_reg_9_
*1065 pip_sum_sum1_reg_7_
*1066 pip_sum_sum_reg_11_
*1067 pip_sum1_reg_5_
*1068 pip_sum1_reg_6_
*1069 pip_pp3_reg_1__1_
*1070 pip_sum_reg_3_
*1071 pip_sum_sum1_reg_8_
*1072 pip_sum_sum1_reg_11_
*1073 U201
*1074 U202
*1075 U205
*1076 U206
*1077 U210
*1078 U213
*1079 U214
*1080 U215
*1081 U216
*1082 U217
*1083 U218
*1084 U219
*1085 U220
*1086 U223
*1087 U224
*1088 U228
*1089 U229
*1090 U231
*1091 U232
*1092 U233
*1093 U234
*1094 U235
*1095 U236
*1096 U237
*1097 U238
*1098 U239
*1099 U240
*1100 U241
*1101 U255
*1102 U256
*1103 U257
*1104 U258
*1105 U259
*1106 U260
*1107 U261
*1108 U262
*1109 U263
*1110 U264
*1111 U265
*1112 U266
*1113 U267
*1114 U268
*1115 U269
*1116 U270
*1117 U271
*1118 U272
*1119 U273
*1120 U274
*1121 U275
*1122 U276
*1123 U277
*1124 U278
*1125 U279
*1126 U280
*1127 U281
*1128 U282
*1129 U283
*1130 U284
*1131 U285
*1132 U286
*1133 U287
*1134 U288
*1135 U289
*1136 U290
*1137 U291
*1138 U292
*1139 U293
*1140 U294
*1141 U295
*1142 U296
*1143 U297
*1144 U298
*1145 U299
*1146 U300
*1147 U301
*1148 U302
*1149 U303
*1150 U304
*1151 U305
*1152 U306
*1153 U307
*1154 U308
*1155 U309
*1156 U310
*1157 U311
*1158 U312
*1159 U313
*1160 U314
*1161 U315
*1162 U316
*1163 U317
*1164 U318
*1165 U319
*1166 U320
*1167 U321
*1168 U322
*1169 U323
*1170 U324
*1171 U325
*1172 U326
*1173 U327
*1174 U328
*1175 U329
*1176 U330
*1177 U331
*1178 U332
*1179 U333
*1180 U334
*1181 U335
*1182 U336
*1183 U337
*1184 U338
*1185 U339
*1186 U340
*1187 U341
*1188 U342
*1189 U343
*1190 U344
*1191 U345
*1192 U346
*1193 U347
*1194 U348
*1195 U349
*1196 U351
*1197 U352
*1198 U353
*1199 U354
*1200 U355
*1201 U356
*1202 U357
*1203 U358
*1204 U359
*1205 U360
*1206 U362
*1207 U363
*1208 U365
*1209 U366
*1210 U368
*1211 U369
*1212 U370
*1213 U371
*1214 U372
*1215 U373
*1216 U374
*1217 U375
*1218 U376
*1219 U377
*1220 U378
*1221 U379
*1222 U380
*1223 U382
*1224 U383
*1225 U384
*1226 U387
*1227 U391
*1228 U392
*1229 U393
*1230 U394
*1231 U398
*1232 U399
*1233 U400
*1234 U401
*1235 U402
*1236 U403
*1237 U404
*1238 U405
*1239 U406
*1240 U407
*1241 U408
*1242 U409
*1243 U410
*1244 U411
*1245 U412
*1246 U413
*1247 U414
*1248 U415
*1249 U416
*1250 U417
*1251 U418
*1252 U419
*1253 U420
*1254 U421
*1255 U422
*1256 U423
*1257 U424
*1258 U425
*1259 U428
*1260 U430
*1261 U431
*1262 U432
*1263 U433
*1264 U434
*1265 U436
*1266 U437
*1267 U438
*1268 U439
*1269 U441
*1270 U442
*1271 U443
*1272 U444
*1273 U445
*1274 U446
*1275 U447
*1276 U448
*1277 U449
*1278 U450
*1279 U451
*1280 U452
*1281 U453
*1282 U454
*1283 U455
*1284 U456
*1285 U457
*1286 U458
*1287 U459
*1288 U460
*1289 U461
*1290 U462
*1291 U463
*1292 U464
*1293 U465
*1294 U466
*1295 U467
*1296 U468
*1297 U469
*1298 U470
*1299 U471
*1300 U472
*1301 U473
*1302 U474
*1303 U485
*1304 U486
*1305 U489
*1306 U490
*1307 U491
*1308 U493
*1309 U494
*1310 U495
*1311 U496
*1312 U497
*1313 U498
*1314 U499
*1315 U500
*1316 U501
*1317 U502
*1318 U503
*1319 U504
*1320 U505
*1321 U506
*1322 U507
*1323 U508
*1324 U509
*1325 U510
*1326 U511
*1327 U512
*1328 U520
*1329 U521
*1330 U522
*1331 U523
*1332 U524
*1333 U527
*1334 U528
*1335 U529
*1336 U530
*1337 U532
*1338 U533
*1339 U534
*1340 U536
*1341 U537
*1342 U538
*1343 U539
*1344 U540
*1345 U541
*1346 U543
*1347 U544
*1348 U545
*1349 U547
*1350 U548
*1351 U549
*1352 U550
*1353 U551
*1354 U552
*1355 U553
*1356 U554
*1357 U555
*1358 U557
*1359 U558
*1360 U559
*1361 U560
*1362 U562
*1363 U563
*1364 U564
*1365 U565
*1366 U566
*1367 U567
*1368 U568
*1369 U569
*1370 U571
*1371 U572
*1372 U573
*1373 U574
*1374 U575
*1375 U576
*1376 U577
*1377 U578
*1378 U579
*1379 U580
*1380 U581
*1381 U582
*1382 U586
*1383 U587
*1384 U588
*1385 U589
*1386 U590
*1387 U591
*1388 U592
*1389 U593
*1390 U594
*1391 U595
*1392 U596
*1393 U598
*1394 U599
*1395 U600
*1396 U601
*1397 U602
*1398 U603
*1399 U604
*1400 U606
*1401 U607
*1402 U608
*1403 U610
*1404 U611
*1405 U612
*1406 U614
*1407 U615
*1408 U616
*1409 U617
*1410 U618
*1411 U620
*1412 U621
*1413 U622
*1414 U623
*1415 U624
*1416 U625
*1417 U626
*1418 U627
*1419 U628
*1420 U629
*1421 U630
*1422 U632
*1423 U633
*1424 U634
*1425 U635
*1426 U637
*1427 U638
*1428 U639
*1429 U640
*1430 U641
*1431 U642
*1432 U643
*1433 U644
*1434 U645
*1435 U647
*1436 U648
*1437 U649
*1438 U652
*1439 U653
*1440 U654
*1441 U656
*1442 U657
*1443 U658
*1444 U659
*1445 U660
*1446 U661
*1447 U662
*1448 U663
*1449 U664
*1450 U665
*1451 U667
*1452 U668
*1453 U669
*1454 U670
*1455 U671
*1456 U676
*1457 U677
*1458 U678
*1459 U679
*1460 U680
*1461 U681
*1462 U682
*1463 U683
*1464 U684
*1465 U686
*1466 U687
*1467 U688
*1468 U689
*1469 U690
*1470 U691
*1471 U692
*1472 U693
*1473 U694
*1474 U695
*1475 U697
*1476 U698
*1477 U699
*1478 U700
*1479 U701
*1480 U702
*1481 U703
*1482 U705
*1483 U706
*1484 U707
*1485 U708
*1486 U709
*1487 U711
*1488 U712
*1489 U713
*1490 U714
*1491 U715
*1492 U716
*1493 U717
*1494 U719
*1495 U720
*1496 U721
*1497 U723
*1498 U724
*1499 U725
*1500 U726
*1501 U727
*1502 U728
*1503 U729
*1504 U730
*1505 U731
*1506 U732
*1507 U733
*1508 U734
*1509 U735
*1510 U736
*1511 U737
*1512 U738
*1513 U739
*1514 U740
*1515 U742
*1516 U743
*1517 U744
*1518 U745
*1519 U746
*1520 U747
*1521 U748
*1522 U749
*1523 U750
*1524 U751
*1525 U752
*1526 U753
*1527 U754
*1528 U755
*1529 U756
*1530 U757
*1531 U758
*1532 U759
*1533 U760
*1534 U761
*1535 U762
*1536 U763
*1537 U764
*1538 U765
*1539 U766
*1540 U767
*1541 U768
*1542 U769
*1543 U770
*1544 U771
*1545 U772
*1546 U773
*1547 U774
*1548 U775
*1549 U776
*1550 U777
*1551 U778
*1552 U779
*1553 U781
*1554 U782
*1555 U783
*1556 U784
*1557 U785
*1558 U786
*1559 U787


*PORTS

*132 I *C 12 70.8
*133 I *C 24 70.8
*100 I *C 0 33
*101 I *C 0 30
*102 I *C 0 27
*103 I *C 0 24
*104 I *C 0 21
*105 I *C 0 18
*106 I *C 0 15
*107 I *C 0 12
*108 I *C 0 57
*109 I *C 0 54
*110 I *C 0 51
*111 I *C 0 48
*112 I *C 0 45
*113 I *C 0 42
*114 I *C 0 39
*115 I *C 0 36
*116 O *C 256.8 57
*117 O *C 256.8 54
*118 O *C 256.8 51
*119 O *C 256.8 48
*120 O *C 256.8 45
*121 O *C 256.8 42
*122 O *C 256.8 39
*123 O *C 256.8 36
*124 O *C 256.8 33
*125 O *C 256.8 30
*126 O *C 256.8 27
*127 O *C 256.8 24
*128 O *C 256.8 21
*129 O *C 256.8 18
*130 O *C 256.8 15
*131 O *C 256.8 12


*D_NET *1 0.00303895

*CONN
*I *1297:A I *C 9.8 17.4 *L 0.00155 *D CLKAND2X2TS
*I *1296:A I *C 9.8 13.8 *L 0.00155 *D CLKAND2X2TS
*I *1295:A I *C 9.8 10.2 *L 0.00155 *D CLKAND2X2TS
*I *790:Y O *C 14.2 23.8 *L 0 *D CLKBUFX2TS

*CAP
1 *1297:A 4.63e-05
2 *1296:A 4.63e-05
3 *1295:A 4.63e-05
4 *790:Y 0.00011208
5 *1:4 0.00038253
6 *1:5 0.00036964
7 *1:6 0.00015633
8 *1:7 0.0002784
9 *1:8 0.0002784
10 *1:9 0.00014363
11 *1:10 0.00014363
12 *1:11 0.00014363
13 *1:12 0.00022736
14 *1:13 0.0002364
15 *1:14 0.00024433
16 *1:15 4.427e-05
17 *1:16 4.427e-05
18 *1:17 9.515e-05

*RES
1 *1:17 *790:Y 3
2 *1:16 *1:17 0.149
3 *1:15 *1:16 0.149
4 *1:14 *1:15 0.149
5 *1:13 *1:14 1.639
6 *1:7 *1:13 3
7 *1:8 *1:7 1.639
8 *1:11 *1297:A 0.42
9 *1:12 *1:8 3
10 *1:10 *1296:A 0.42
11 *1:4 *1:11 3
12 *1:4 *1:12 1.043
13 *1:5 *1:10 3
14 *1:5 *1:4 1.341
15 *1:6 *1:5 1.341
16 *1:9 *1295:A 0.42
17 *1:9 *1:6 3
*END

*D_NET *2 0.0011105

*CONN
*I *792:B0 I *C 80.2 46.6 *L 0.00865 *D OAI21X4TS
*I *791:Y O *C 75.8 47 *L 0 *D NAND2X1TS

*CAP
1 *792:B0 5.309e-05
2 *791:Y 5.309e-05
3 *2:2 0.00013333
4 *2:3 0.00013333
5 *2:4 0.00028398
6 *2:5 0.00028398
7 *2:6 8.485e-05
8 *2:7 8.485e-05

*RES
1 *2:6 *792:B0 6
2 *2:6 *2:7 0.447
3 *2:4 *2:7 3
4 *2:5 *2:4 1.639
5 *2:2 *2:5 3
6 *2:3 *2:2 0.745
7 *791:Y *2:3 6
*END

*D_NET *3 0.00118382

*CONN
*I *796:B0 I *C 96.6 20.6 *L 0.00865 *D OAI21X4TS
*I *795:Y O *C 92.2 20.2 *L 0 *D NAND2X1TS

*CAP
1 *796:B0 5.309e-05
2 *795:Y 5.309e-05
3 *3:2 7.164e-05
4 *3:3 7.164e-05
5 *3:4 9.33e-05
6 *3:5 9.33e-05
7 *3:6 0.00037388
8 *3:7 0.00037388

*RES
1 *3:3 *796:B0 6
2 *3:3 *3:2 0.596
3 *3:7 *3:2 3
4 *3:6 *3:7 1.639
5 *3:5 *3:6 3
6 *3:4 *3:5 0.298
7 *795:Y *3:4 6
*END

*D_NET *4 0.0007079

*CONN
*I *886:A I *C 23.4 61 *L 0.0136 *D INVX8TS
*I *804:Y O *C 25 61.8 *L 0 *D BUFX4TS

*CAP
1 *886:A 0.00011208
2 *804:Y 0.00011208
3 *4:2 8.722e-05
4 *4:3 0.0001045
5 *4:4 9.376e-05
6 *4:5 3.562e-05
7 *4:6 0.00016264

*RES
1 *4:4 *804:Y 3
2 *4:4 *4:5 0.149
3 *4:6 *4:5 3
4 *4:3 *4:6 0.596
5 *4:2 *4:3 3
6 *886:A *4:2 3
*END

*D_NET *5 0.00096662

*CONN
*I *810:Y O *C 119.4 13 *L 0 *D NAND2X1TS
*I *809:B0 I *C 123.8 13.4 *L 0.00865 *D OAI21X4TS

*CAP
1 *810:Y 5.309e-05
2 *809:B0 5.309e-05
3 *5:2 5.517e-05
4 *5:3 5.517e-05
5 *5:4 0.00030237
6 *5:5 0.00036051
7 *5:6 8.722e-05

*RES
1 *5:6 *809:B0 6
2 *5:4 *5:6 3
3 *5:5 *5:4 1.639
4 *5:2 *810:Y 6
5 *5:3 *5:5 3
6 *5:3 *5:2 0.298
*END

*D_NET *6 0.00592249

*CONN
*I *1483:A0 I *C 69.4 13.8 *L 0.00518 *D AOI21X2TS
*I *1405:A I *C 67 9 *L 0.00245 *D XNOR2X1TS
*I *818:A0 I *C 56.2 10.2 *L 0.00518 *D AOI21X2TS
*I *814:Y O *C 46.2 11 *L 0 *D INVX3TS
*I *798:A1N I *C 63.8 17.4 *L 0.0024 *D OAI2BB1X4TS

*CAP
1 *1483:A0 5.264e-05
2 *1405:A 5.309e-05
3 *818:A0 4.947e-05
4 *814:Y 2.316e-05
5 *798:A1N 0.00011208
6 *6:5 0.0001468
7 *6:6 0.00016656
8 *6:7 0.00010842
9 *6:8 0.00010954
10 *6:9 0.00033177
11 *6:10 0.00012422
12 *6:11 6.608e-05
13 *6:12 0.00063391
14 *6:13 0.00053228
15 *6:14 0.00049383
16 *6:15 0.00017232
17 *6:16 0.00018068
18 *6:17 0.00051104
19 *6:18 0.00022224
20 *6:19 0.00014997
21 *6:20 0.00040398
22 *6:21 0.00040398
23 *6:22 0.00011048
24 *6:23 0.00012049
25 *6:24 8.722e-05
26 *6:25 8.722e-05
27 *6:12 *509:6 2.257e-05
28 *6:13 *509:3 2.257e-05
29 *6:14 *509:6 5.392e-05
30 *6:15 *509:3 5.392e-05
31 *6:16 *509:7 3.95e-05
32 *6:17 *509:5 3.95e-05
33 *6:17 *509:7 0.00010723
34 *6:14 *509:5 0.00010723
35 *6:14 *509:7 1.129e-05
36 *6:15 *509:5 1.129e-05

*RES
1 *6:6 *798:A1N 3
2 *6:7 *6:6 0.596
3 *6:21 *6:7 3
4 *6:21 *6:20 2.384
5 *1483:A0 *6:19 0.42
6 *6:8 *6:20 3
7 *6:9 *6:19 3
8 *6:9 *6:8 0.596
9 *6:11 *1405:A 6
10 *6:18 *6:9 1.49
11 *6:11 *6:10 0.298
12 *6:16 *6:18 3
13 *6:17 *6:10 3
14 *6:17 *6:16 1.043
15 *6:14 *6:17 2.831
16 *6:5 *818:A0 0.63
17 *6:15 *6:14 1.192
18 *6:25 *6:5 3
19 *6:15 *6:22 0.149
20 *6:12 *6:25 3
21 *6:12 *6:22 0.596
22 *6:13 *6:12 3.129
23 *6:24 *6:13 3
24 *6:23 *6:24 3
25 *814:Y *6:23 0.21
*END

*D_NET *7 0.00124609

*CONN
*I *813:Y O *C 70.2 18.2 *L 0 *D CLKINVX1TS
*I *798:A0N I *C 64.6 17.8 *L 0.00254 *D OAI2BB1X4TS

*CAP
1 *813:Y 0.00011208
2 *798:A0N 5.309e-05
3 *7:2 0.00045918
4 *7:3 0.00045918
5 *7:4 3.767e-05
6 *7:5 3.767e-05
7 *7:6 8.722e-05

*RES
1 *7:6 *813:Y 3
2 *7:2 *7:6 3
3 *7:3 *7:2 2.086
4 *7:5 *7:3 3
5 *7:4 *7:5 0.149
6 *798:A0N *7:4 6
*END

*D_NET *8 0.00055864

*CONN
*I *817:B0 I *C 48.6 17.4 *L 0.00421 *D OAI21X2TS
*I *816:Y O *C 47 18.2 *L 0 *D NAND2X1TS

*CAP
1 *817:B0 5.309e-05
2 *816:Y 5.309e-05
3 *8:2 0.00011793
4 *8:3 0.00017607
5 *8:4 3.562e-05
6 *8:5 3.562e-05
7 *8:6 8.722e-05

*RES
1 *8:6 *817:B0 6
2 *8:2 *8:6 3
3 *8:3 *8:2 0.596
4 *8:5 *8:3 3
5 *8:4 *8:5 0.149
6 *816:Y *8:4 6
*END

*D_NET *9 0.0015757

*CONN
*I *826:A0N I *C 151.4 46.2 *L 0.00161 *D OAI2BB1X2TS
*I *825:Y O *C 143 47 *L 0 *D CLKINVX1TS

*CAP
1 *826:A0N 5.309e-05
2 *825:Y 2.567e-05
3 *9:2 8.271e-05
4 *9:3 8.271e-05
5 *9:4 0.00054346
6 *9:5 0.00054346
7 *9:6 0.000123
8 *9:7 6.08e-05
9 *9:8 6.08e-05

*RES
1 *9:3 *826:A0N 6
2 *9:3 *9:2 0.596
3 *9:4 *9:2 3
4 *9:5 *9:4 2.98
5 *9:8 *9:5 3
6 *9:7 *9:8 0.298
7 *9:6 *9:7 3
8 *825:Y *9:6 0.21
*END

*D_NET *10 0.00091262

*CONN
*I *826:B0 I *C 152.6 46.6 *L 0.00361 *D OAI2BB1X2TS
*I *824:Y O *C 148.6 45.4 *L 0 *D NAND2BX2TS

*CAP
1 *826:B0 0.00011208
2 *824:Y 0.00011208
3 *10:2 0.00020352
4 *10:3 0.00020352
5 *10:4 4.096e-05
6 *10:5 9.91e-05
7 *10:6 9.975e-05
8 *10:7 4.161e-05

*RES
1 *10:6 *826:B0 3
2 *10:6 *10:7 0.11175
3 *10:2 *10:7 3
4 *10:3 *10:2 0.745
5 *10:4 *10:3 3
6 *10:5 *10:4 0.149
7 *824:Y *10:5 3
*END

*D_NET *11 0.0020329

*CONN
*I *829:A0N I *C 166.2 49.8 *L 0.00142 *D OAI2BB2X1TS
*I *828:Y O *C 175 50.2 *L 0 *D NOR2X1TS

*CAP
1 *829:A0N 0.00011208
2 *828:Y 0.00011208
3 *11:2 0.00070311
4 *11:3 0.00070311
5 *11:4 4.693e-05
6 *11:5 0.00010507
7 *11:6 9.619e-05
8 *11:7 0.00015433

*RES
1 *11:7 *828:Y 3
2 *11:6 *11:7 0.596
3 *11:2 *11:6 3
4 *11:5 *829:A0N 3
5 *11:3 *11:2 3.278
6 *11:4 *11:5 0.298
7 *11:4 *11:3 3
*END

*D_NET *12 0.00187211

*CONN
*I *829:B1 I *C 167.4 49.4 *L 0.00235 *D OAI2BB2X1TS
*I *827:Y O *C 176.6 50.6 *L 0 *D NAND2BX1TS

*CAP
1 *829:B1 5.309e-05
2 *827:Y 0.00011208
3 *12:2 8.723e-05
4 *12:3 9.644e-05
5 *12:4 0.00062739
6 *12:5 0.00067632
7 *12:6 3.71e-05
8 *12:7 9.524e-05
9 *12:8 8.722e-05

*RES
1 *12:8 *827:Y 3
2 *12:2 *12:8 3
3 *12:3 *12:2 0.596
4 *12:3 *12:4 0.149
5 *12:5 *12:4 2.831
6 *12:7 *12:5 3
7 *12:6 *12:7 0.149
8 *829:B1 *12:6 6
*END

*D_NET *13 0.00061584

*CONN
*I *833:B0 I *C 40.2 53.4 *L 0.00421 *D OAI21X2TS
*I *832:Y O *C 38.6 54.2 *L 0 *D NAND2X1TS

*CAP
1 *833:B0 5.309e-05
2 *832:Y 5.309e-05
3 *13:2 6.424e-05
4 *13:3 6.424e-05
5 *13:4 0.00011791
6 *13:5 0.00017605
7 *13:6 8.722e-05

*RES
1 *13:6 *833:B0 6
2 *13:4 *13:6 3
3 *13:5 *13:4 0.596
4 *13:2 *13:5 3
5 *13:3 *13:2 0.149
6 *832:Y *13:3 6
*END

*D_NET *14 0.00089703

*CONN
*I *836:B0 I *C 114.2 53.8 *L 0.00361 *D OAI2BB1X2TS
*I *835:Y O *C 110.2 52.6 *L 0 *D NAND2BX2TS

*CAP
1 *836:B0 5.309e-05
2 *835:Y 0.00011208
3 *14:2 5.393e-05
4 *14:3 5.393e-05
5 *14:4 0.00024441
6 *14:5 0.00024441
7 *14:6 9.666e-05
8 *14:7 3.852e-05

*RES
1 *14:3 *836:B0 6
2 *14:3 *14:2 0.149
3 *14:4 *14:2 3
4 *14:5 *14:4 1.043
5 *14:7 *14:5 3
6 *14:6 *14:7 0.149
7 *835:Y *14:6 3
*END

*D_NET *15 0.00160064

*CONN